%nproc=16
%mem=24GB
%chk=0001.chk
#p td=nstates=10 cam-b3lyp cc-pVTZ eet=prop IOp(2/12=3) nosymm

triptycene

0 1
 C                 -1.44979401    0.90100225    0.40844033
 C                 -2.70558920    1.08882296    2.88314648
 C                 -2.28340026    1.99746353    0.66070372
 C                 -1.23000991   -0.07042692    1.39489133
 C                 -1.85209309    0.00712344    2.63569294
 C                 -2.91514247    2.06925487    1.91820940
 H                 -1.67802913   -0.75173903    3.39359610
 H                 -3.57333862    2.90900152    2.13233411
 H                 -3.20600501    1.17457531    3.84441953
 N                 -2.53190879    2.96965316   -0.32197619
 H                 -2.90696647    3.83328467    0.05269058
 H                 -1.74076502    3.16345869   -0.92475822
 H                 -0.90947110    0.69494778   -0.51315433
 H                 -0.54695119   -0.85186634    1.07185539

