%nproc=16
%mem=24GB
%chk=0002.chk
#p td=nstates=10 cam-b3lyp cc-pVTZ eet=prop IOp(2/12=3) nosymm

triptycene

0 1
 C                  0.78379964    0.50423120   -0.48940753
 C                  3.36181321    0.05376956    0.44755127
 C                  1.83725220    1.26600357   -1.00679164
 C                  1.01144613   -0.45817797    0.49104549
 C                  2.30477714   -0.69754217    0.97034572
 C                  3.12996769    1.02950948   -0.53148612
 H                  3.97394433    1.59589014   -0.90855686
 H                  4.37741429   -0.10299757    0.79260757
 O                  2.43042135   -1.66880531    1.93112545
 O                  1.50330883    2.20694373   -1.95175023
 C                  2.55382716    2.94986090   -2.54416719
 H                  3.26622480    2.29616127   -3.06572851
 H                  3.09722207    3.54933823   -1.80079511
 H                  2.08146137    3.61749017   -3.26779907
 C                  3.72852309   -1.95240879    2.42056214
 H                  4.39710653   -2.29526237    1.61890892
 H                  3.60640902   -2.75172076    3.15430462
 H                  4.17733649   -1.07731116    2.91057867
 H                 -0.25949002    0.57957192   -0.77388328
 H                  0.10677248   -0.96410875    0.80830823

