%nproc=16
%mem=24GB
%chk=V_0001.0002.chk
#p b3lyp cc-pVTZ td eet=coup IOp(2/12=3) nosymm

coupling 0001 - 0002

0 1
 C	 -1.44979401	  0.90100225	  0.40844033
 C	 -2.70558920	  1.08882296	  2.88314648
 C	 -2.28340026	  1.99746353	  0.66070372
 C	 -1.23000991	 -0.07042692	  1.39489133
 C	 -1.85209309	  0.00712344	  2.63569294
 C	 -2.91514247	  2.06925487	  1.91820940
 H	 -1.67802913	 -0.75173903	  3.39359610
 H	 -3.57333862	  2.90900152	  2.13233411
 H	 -3.20600501	  1.17457531	  3.84441953
 N	 -2.53190879	  2.96965316	 -0.32197619
 H	 -2.90696647	  3.83328467	  0.05269058
 H	 -1.74076502	  3.16345869	 -0.92475822
 H	 -0.90947110	  0.69494778	 -0.51315433
 H	 -0.54695119	 -0.85186634	  1.07185539
 C	  0.78379964	  0.50423120	 -0.48940753
 C	  3.36181321	  0.05376956	  0.44755127
 C	  1.83725220	  1.26600357	 -1.00679164
 C	  1.01144613	 -0.45817797	  0.49104549
 C	  2.30477714	 -0.69754217	  0.97034572
 C	  3.12996769	  1.02950948	 -0.53148612
 H	  3.97394433	  1.59589014	 -0.90855686
 H	  4.37741429	 -0.10299757	  0.79260757
 O	  2.43042135	 -1.66880531	  1.93112545
 O	  1.50330883	  2.20694373	 -1.95175023
 C	  2.55382716	  2.94986090	 -2.54416719
 H	  3.26622480	  2.29616127	 -3.06572851
 H	  3.09722207	  3.54933823	 -1.80079511
 H	  2.08146137	  3.61749017	 -3.26779907
 C	  3.72852309	 -1.95240879	  2.42056214
 H	  4.39710653	 -2.29526237	  1.61890892
 H	  3.60640902	 -2.75172076	  3.15430462
 H	  4.17733649	 -1.07731116	  2.91057867
 H	 -0.25949002	  0.57957192	 -0.77388328
 H	  0.10677248	 -0.96410875	  0.80830823

